/*--------------------------------*- C++ -*----------------------------------*\
| =========                 |                                                 |
| \\      /  F ield         | OpenFOAM: The Open Source CFD Toolbox           |
|  \\    /   O peration     | Version:  v2106                                 |
|   \\  /    A nd           | Website:  www.openfoam.com                      |
|    \\/     M anipulation  |                                                 |
\*---------------------------------------------------------------------------*/
FoamFile
{
    version     2.0;
    format      ascii;
    class       volVectorField;
    object      U;
}
// * * * * * * * * * * * * * * * * * * * * * * * * * * * * * * * * * * * * * //

dimensions      [0 1 -1 0 0 0 0];

internalField   uniform (0 0 0);

boundaryField
{
    "front|back|walls|porosityWall"
    {
        type            noSlip;
    }

    inlet
    {
        type            oscillatingFixedValue;
	refValue	uniform (0.1 0 0);
	amplitude	0.1;
	frequency	10;
    }

    outlet
    {
        type            pressureInletOutletVelocity;
        value           uniform (0 0 0);
        inletValue      uniform (0 0 0);
    }
}


// ************************************************************************* //
