/*--------------------------------*- C++ -*----------------------------------*\
| =========                 |                                                 |
| \\      /  F ield         | OpenFOAM: The Open Source CFD Toolbox           |
|  \\    /   O peration     | Version:  2.3.0                                 |
|   \\  /    A nd           | Web:      www.OpenFOAM.org                      |
|    \\/     M anipulation  |                                                 |
\*---------------------------------------------------------------------------*/
FoamFile
{
    version     2.0;
    format      ascii;
    class       volScalarField;
    location    "0";
    object      k;
}
// * * * * * * * * * * * * * * * * * * * * * * * * * * * * * * * * * * * * * //

dimensions      [ 0 2 -2 0 0 0 0 ];

internalField   uniform 0.02;

boundaryField
{
    INLET
    {
        type              fixedValue;
        value             $internalField;
    }
     UPSTREAMWALL
	
    {
        type            kqRWallFunction;
        value           uniform 0.02;
    }
   FACINGWALL
 {
        type            kqRWallFunction;
        value           uniform 0.02;
    }
INNERWALL
 {
        type            kqRWallFunction;
        value           uniform 0.02;
    }
BACKFACINGWALL
 {
        type            kqRWallFunction;
        value           uniform 0.02;
    }
 DOWNSTREAMWALL
 {
        type            kqRWallFunction;
        value           uniform 0.02;
    }


    OUTLET
    {
        type            zeroGradient;
    }
}


// ************************************************************************* //
