/*--------------------------------*- C++ -*----------------------------------*\
| =========                 |                                                 |
| \\      /  F ield         | OpenFOAM: The Open Source CFD Toolbox           |
|  \\    /   O peration     | Version:  2.3.0                                 |
|   \\  /    A nd           | Web:      www.OpenFOAM.org                      |
|    \\/     M anipulation  |                                                 |
\*---------------------------------------------------------------------------*/
FoamFile
{
    version     2.0;
    format      ascii;
    class       volScalarField;
    location    "0";
    object      omega;
}
// * * * * * * * * * * * * * * * * * * * * * * * * * * * * * * * * * * * * * //

dimensions      [0 0 -1 0 0 0 0];

internalField   uniform 300;

boundaryField
{
    INLET
    {
         type              fixedValue;
        value             $internalField;  
    }

     UPSTREAMWALL
	
    {
       type            omegaWallFunction;
        value           uniform 300;
        Cmu             0.09;
        kappa           0.41;
        E               9.8;
        beta1           0.075;
        value           uniform 300;
    }
   FACINGWALL
 {
         type            omegaWallFunction;
        value           uniform 300;
        Cmu             0.09;
        kappa           0.41;
        E               9.8;
        beta1           0.075;
        value           uniform 300;
    }
INNERWALL
 { type            omegaWallFunction;
        value           uniform 300;
        Cmu             0.09;
        kappa           0.41;
        E               9.8;
        beta1           0.075;
        value           uniform 300;
    }
BACKFACINGWALL
 { type            omegaWallFunction;
        value           uniform 300;
        Cmu             0.09;
        kappa           0.41;
        E               9.8;
        beta1           0.075;
        value           uniform 300;
    }
 DOWNSTREAMWALL
 { type            omegaWallFunction;
        value           uniform 300;
        Cmu             0.09;
        kappa           0.41;
        E               9.8;
        beta1           0.075;
        value           uniform 300;
    }

    
  
    OUTLET
    {
        type            zeroGradient;
    }
}


// ************************************************************************* //
