/*--------------------------------*- C++ -*----------------------------------*\
| =========                 |                                                 |
| \\      /  F ield         | OpenFOAM: The Open Source CFD Toolbox           |
|  \\    /   O peration     | Version:  2.3.0                                 |
|   \\  /    A nd           | Web:      www.OpenFOAM.org                      |
|    \\/     M anipulation  |                                                 |
\*---------------------------------------------------------------------------*/
FoamFile
{
    version     2.0;
    format      ascii;
    class       volScalarField;
    location    "0";
    object      p;
}
// * * * * * * * * * * * * * * * * * * * * * * * * * * * * * * * * * * * * * //

dimensions      [ 0 2 -2 0 0 0 0 ];

internalField   uniform 0;

boundaryField
{
    INLET
    {
        type            zeroGradient;
    }
      UPSTREAMWALL	
    {
        type            zeroGradient;
    }
   FACINGWALL
   {
        type            zeroGradient;
    }
INNERWALL
 {
        type            zeroGradient;
    }
BACKFACINGWALL
 {
        type            zeroGradient;
    }
 DOWNSTREAMWALL
 {
        type            zeroGradient;
    }
   

 OUTLET
{
      // type            advective;
       // phi              phi;
       // value           uniform 0;
        type            fixedValue;
        
        value           uniform 0;
    }
}


// ************************************************************************* //
